/*--------------------------------*- C++ -*----------------------------------*\
  =========                 |
  \\      /  F ield         | OpenFOAM: The Open Source CFD Toolbox
   \\    /   O peration     | Website:  https://openfoam.org
    \\  /    A nd           | Version:  8
     \\/     M anipulation  |
\*---------------------------------------------------------------------------*/
FoamFile
{
    version     2.0;
    format      ascii;
    class       dictionary;
    location    "constant";
    object      fvSolution;
}
// * * * * * * * * * * * * * * * * * * * * * * * * * * * * * * * * * * * * * //
solvers
{
    p_rgh
    {
        solver          PCG;
        preconditioner  DIC;
        tolerance       1e-07;
        relTol          0.01;
    }

    p_rghFinal
    {
        solver          PCG;
        preconditioner  DIC;
        tolerance       1e-07;
        relTol          0;
    }

    U
    {
        solver          smoothSolver;
        smoother        GaussSeidel;
        tolerance       1e-07;
        relTol          0.1;
    }

    UFinal
    {
        solver          smoothSolver;
        smoother        GaussSeidel;
        tolerance       1e-07;
        relTol          0;
    }

    hFinal
    {
        solver          smoothSolver;
        smoother        GaussSeidel;
        tolerance       1e-07;
        relTol          0;
    }

    YiFinal
    {
        solver          smoothSolver;
        smoother        GaussSeidel;
        tolerance       1e-07;
        relTol          0;
    }

    rhoFinal
    {
        solver          smoothSolver;
        smoother        GaussSeidel;
        tolerance       1e-07;
        relTol          0;
    }

    epsilonFinal
    {
        solver          smoothSolver;
        smoother        GaussSeidel;
        tolerance       1e-07;
        relTol          0;
    }

    kFinal
    {
        solver          smoothSolver;
        smoother        GaussSeidel;
        tolerance       1e-07;
        relTol          0;
    }

    "(k|epsilon|omega|rho|Yi)"
    {
        solver          smoothSolver;
        smoother        GaussSeidel;
        tolerance       1e-07;
        relTol          0.1;
    }
}

PISO
{
    nCorrectors     2;
    nNonOrthogonalCorrectors 0;
}

PIMPLE
{
    nCorrectors          2;
    nNonOrthogonalCorrectors 0;
    momentumPredictor    yes;
}
